bench/IEEE39_with_four_terminal_vsc.raw
0,   100.00, 31, 0, 1, 60.00     / PSS(R)E-31.0    TUE, MAY 23 2017  10:02
10��39�ڵ�ϵͳ  CASE NO.   1 ,CONVERTED FROM PSASP 6.2X
BY APSAL, SHANDONG UNIVERSITY, ON 2010-01-08 10:39:07 AM
     1,'BUS-1       ', 100.0000,1,   1,   1,   1,1.04754,  -9.5707
     2,'BUS-2       ', 100.0000,1,   1,   1,   1,1.04896,  -7.0111
     3,'BUS-3       ', 100.0000,1,   1,   1,   1,1.03042,  -9.8581
     4,'BUS-4       ', 100.0000,1,   1,   1,   1,1.00381, -10.6546
     5,'BUS-5       ', 100.0000,1,   1,   1,   1,1.00502,  -9.4687
     6,'BUS-6       ', 100.0000,1,   1,   1,   1,1.00736,  -8.7668
     7,'BUS-7       ', 100.0000,1,   1,   1,   1,0.99670, -10.9702
     8,'BUS-8       ', 100.0000,1,   1,   1,   1,0.99573, -11.4762
     9,'BUS-9       ', 100.0000,1,   1,   1,   1,1.02809, -11.2997
    10,'BUS-10      ', 100.0000,1,   1,   1,   1,1.01702,  -6.3816
    11,'BUS-11      ', 100.0000,1,   1,   1,   1,1.01253,  -7.1952
    12,'BUS-12      ', 100.0000,1,   1,   1,   1,1.00000,  -7.2106
    13,'BUS-13      ', 100.0000,1,   1,   1,   1,1.01419,  -7.0959
    14,'BUS-14      ', 100.0000,1,   1,   1,   1,1.01173,  -8.7648
    15,'BUS-15      ', 100.0000,1,   1,   1,   1,1.01578,  -9.1807
    16,'BUS-16      ', 100.0000,1,   1,   1,   1,1.03225,  -7.7766
    17,'BUS-17      ', 100.0000,1,   1,   1,   1,1.03395,  -8.7748
    18,'BUS-18      ', 100.0000,1,   1,   1,   1,1.03130,  -9.6156
    19,'BUS-19      ', 100.0000,1,   1,   1,   1,1.05001,  -3.1525
    20,'BUS-20      ', 100.0000,1,   1,   1,   1,0.99096,  -4.5639
    21,'BUS-21      ', 100.0000,1,   1,   1,   1,1.03210,  -5.3710
    22,'BUS-22      ', 100.0000,1,   1,   1,   1,1.04998,  -0.9239
    23,'BUS-23      ', 100.0000,1,   1,   1,   1,1.04498,  -1.1221
    24,'BUS-24      ', 100.0000,1,   1,   1,   1,1.03775,  -7.6570
    25,'BUS-25      ', 100.0000,1,   1,   1,   1,1.05752,  -5.6493
    26,'BUS-26      ', 100.0000,1,   1,   1,   1,1.05216,  -6.9058
    27,'BUS-27      ', 100.0000,1,   1,   1,   1,1.03795,  -8.9173
    28,'BUS-28      ', 100.0000,1,   1,   1,   1,1.05016,  -3.3942
    29,'BUS-29      ', 100.0000,1,   1,   1,   1,1.04997,  -0.6351
    30,'BUS-30      ', 100.0000,2,   1,   1,   1,1.04750,  -4.5918
    31,'BUS-31      ', 100.0000,3,   1,   1,   1,0.98200,   0.0000
    32,'BUS-32      ', 100.0000,2,   1,   1,   1,0.98310,   1.6155
    33,'BUS-33      ', 100.0000,2,   1,   1,   1,0.99720,   2.0647
    34,'BUS-34      ', 100.0000,2,   1,   1,   1,1.01230,   0.6263
    35,'BUS-35      ', 100.0000,2,   1,   1,   1,1.04930,   4.0370
    36,'BUS-36      ', 100.0000,2,   1,   1,   1,1.06350,   6.7295
    37,'BUS-37      ', 100.0000,2,   1,   1,   1,1.02780,   1.1355
    38,'BUS-38      ', 100.0000,2,   1,   1,   1,1.02650,   6.4282
    39,'BUS-39      ', 100.0000,2,   1,   1,   1,1.03000, -11.1083
0 / END OF BUS DATA, BEGIN LOAD DATA
     3,'1 ',1,   1,   1,   322.000,     2.400,     0.000,     0.000,     0.000,     0.000,   1
     4,'1 ',1,   1,   1,   500.000,   184.000,     0.000,     0.000,     0.000,     0.000,   1
     7,'1 ',1,   1,   1,   233.800,    84.000,     0.000,     0.000,     0.000,     0.000,   1
     8,'1 ',1,   1,   1,   522.000,   176.000,     0.000,     0.000,     0.000,     0.000,   1
    12,'1 ',1,   1,   1,     8.500,    88.000,     0.000,     0.000,     0.000,     0.000,   1
    15,'1 ',1,   1,   1,   320.000,   153.000,     0.000,     0.000,     0.000,     0.000,   1
    16,'1 ',1,   1,   1,   329.000,    32.300,     0.000,     0.000,     0.000,     0.000,   1
    18,'1 ',1,   1,   1,   158.000,    30.000,     0.000,     0.000,     0.000,     0.000,   1
    20,'1 ',1,   1,   1,   680.000,   103.000,     0.000,     0.000,     0.000,     0.000,   1
    21,'1 ',1,   1,   1,   274.000,   115.000,     0.000,     0.000,     0.000,     0.000,   1
    23,'1 ',1,   1,   1,   247.500,    84.600,     0.000,     0.000,     0.000,     0.000,   1
    24,'1 ',1,   1,   1,   308.600,   -92.200,     0.000,     0.000,     0.000,     0.000,   1
    25,'1 ',1,   1,   1,   224.000,    47.200,     0.000,     0.000,     0.000,     0.000,   1
    26,'1 ',1,   1,   1,   139.000,    17.000,     0.000,     0.000,     0.000,     0.000,   1
    27,'1 ',1,   1,   1,   281.000,    75.500,     0.000,     0.000,     0.000,     0.000,   1
    28,'1 ',1,   1,   1,   206.000,    27.600,     0.000,     0.000,     0.000,     0.000,   1
    29,'1 ',1,   1,   1,   283.500,    26.900,     0.000,     0.000,     0.000,     0.000,   1
    31,'1 ',1,   1,   1,     9.200,     4.600,     0.000,     0.000,     0.000,     0.000,   1
    39,'1 ',1,   1,   1,  1104.000,   250.000,     0.000,     0.000,     0.000,     0.000,   1
0 / END OF LOAD DATA, BEGIN FIXED SHUNT DATA
0 / END OF FIXED SHUNT DATA, BEGIN GENERATOR DATA
    30,'1 ',   250.000,   144.919,  1000.000, -1000.000,1.04750,     0,   300.000, 0.00000E+0, 2.00000E-3, 0.00000E+0, 0.00000E+0,1.00000,1,  100.0,   300.000,     0.000,   1,1.0000
    31,'1 ',   572.835,   207.036, 99900.000,-99900.000,0.98200,     0,   600.000, 0.00000E+0, 2.00000E-3, 0.00000E+0, 0.00000E+0,1.00000,1,  100.0,   600.000,     0.000,   1,1.0000
    32,'1 ',   650.000,   205.731,  1000.000, -1000.000,0.98310,     0,   700.000, 0.00000E+0, 2.00000E-3, 0.00000E+0, 0.00000E+0,1.00000,1,  100.0,   700.000,     0.000,   1,1.0000
    33,'1 ',   632.000,   108.936,  1000.000, -1000.000,0.99720,     0,   700.000, 0.00000E+0, 2.00000E-3, 0.00000E+0, 0.00000E+0,1.00000,1,  100.0,   700.000,     0.000,   1,1.0000
    34,'1 ',   508.000,   166.986,  1000.000, -1000.000,1.01230,     0,   600.000, 0.00000E+0, 2.00000E-3, 0.00000E+0, 0.00000E+0,1.00000,1,  100.0,   600.000,     0.000,   1,1.0000
    35,'1 ',   650.000,   211.112,  1000.000, -1000.000,1.04930,     0,   700.000, 0.00000E+0, 2.00000E-3, 0.00000E+0, 0.00000E+0,1.00000,1,  100.0,   700.000,     0.000,   1,1.0000
    36,'1 ',   560.000,   100.438,  1000.000, -1000.000,1.06350,     0,   600.000, 0.00000E+0, 2.00000E-3, 0.00000E+0, 0.00000E+0,1.00000,1,  100.0,   600.000,     0.000,   1,1.0000
    37,'1 ',   540.000,     0.647,  1000.000, -1000.000,1.02780,     0,   600.000, 0.00000E+0, 2.00000E-3, 0.00000E+0, 0.00000E+0,1.00000,1,  100.0,   600.000,     0.000,   1,1.0000
    38,'1 ',   830.000,    22.659,  1000.000, -1000.000,1.02650,     0,  1000.000, 0.00000E+0, 2.00000E-3, 0.00000E+0, 0.00000E+0,1.00000,1,  100.0,   900.000,     0.000,   1,1.0000
    39,'1 ',  1000.000,    87.883,  1000.000, -1000.000,1.03000,     0,  1500.000, 0.00000E+0, 2.00000E-4, 0.00000E+0, 0.00000E+0,1.00000,1,  100.0,  1100.000,     0.000,   1,1.0000
0 / END OF GENERATOR DATA, BEGIN BRANCH DATA
     1,     2,'1 ', 3.50000E-3, 4.11000E-2,   0.69870,    0.00,    0.00,    0.00,  0.00000,  0.00000,  0.00000,  0.00000,1,1,   0.00,   1,1.0000
     1,    39,'1 ', 1.00000E-3, 2.50000E-2,   0.75000,    0.00,    0.00,    0.00,  0.00000,  0.00000,  0.00000,  0.00000,1,1,   0.00,   1,1.0000
     2,     3,'1 ', 1.30000E-3, 1.51000E-2,   0.25720,    0.00,    0.00,    0.00,  0.00000,  0.00000,  0.00000,  0.00000,1,1,   0.00,   1,1.0000
     2,    25,'1 ', 7.00000E-3, 8.60000E-3,   0.14600,    0.00,    0.00,    0.00,  0.00000,  0.00000,  0.00000,  0.00000,1,1,   0.00,   1,1.0000
     4,     5,'1 ', 8.00000E-4, 1.28000E-2,   0.13420,    0.00,    0.00,    0.00,  0.00000,  0.00000,  0.00000,  0.00000,1,1,   0.00,   1,1.0000
     5,     6,'1 ', 2.00000E-4, 2.60000E-3,   0.04340,    0.00,    0.00,    0.00,  0.00000,  0.00000,  0.00000,  0.00000,1,1,   0.00,   1,1.0000
     5,     8,'1 ', 8.00000E-4, 1.12000E-2,   0.14760,    0.00,    0.00,    0.00,  0.00000,  0.00000,  0.00000,  0.00000,1,1,   0.00,   1,1.0000
     6,     7,'1 ', 6.00000E-4, 9.20000E-3,   0.11300,    0.00,    0.00,    0.00,  0.00000,  0.00000,  0.00000,  0.00000,1,1,   0.00,   1,1.0000
     6,    11,'1 ', 7.00000E-4, 8.20000E-3,   0.13890,    0.00,    0.00,    0.00,  0.00000,  0.00000,  0.00000,  0.00000,1,1,   0.00,   1,1.0000
     7,     8,'1 ', 4.00000E-4, 4.60000E-3,   0.07800,    0.00,    0.00,    0.00,  0.00000,  0.00000,  0.00000,  0.00000,1,1,   0.00,   1,1.0000
     8,     9,'1 ', 2.30000E-3, 3.63000E-2,   0.38040,    0.00,    0.00,    0.00,  0.00000,  0.00000,  0.00000,  0.00000,1,1,   0.00,   1,1.0000
     9,    39,'1 ', 1.00000E-3, 2.50000E-2,   1.20000,    0.00,    0.00,    0.00,  0.00000,  0.00000,  0.00000,  0.00000,1,1,   0.00,   1,1.0000
    10,    11,'1 ', 4.00000E-4, 4.30000E-3,   0.07290,    0.00,    0.00,    0.00,  0.00000,  0.00000,  0.00000,  0.00000,1,1,   0.00,   1,1.0000
    10,    13,'1 ', 4.00000E-4, 4.30000E-3,   0.07290,    0.00,    0.00,    0.00,  0.00000,  0.00000,  0.00000,  0.00000,1,1,   0.00,   1,1.0000
    13,    14,'1 ', 9.00000E-4, 1.01000E-2,   0.17230,    0.00,    0.00,    0.00,  0.00000,  0.00000,  0.00000,  0.00000,1,1,   0.00,   1,1.0000
    14,    15,'1 ', 1.80000E-3, 2.17000E-2,   0.36600,    0.00,    0.00,    0.00,  0.00000,  0.00000,  0.00000,  0.00000,1,1,   0.00,   1,1.0000
    15,    16,'1 ', 9.00000E-4, 9.40000E-3,   0.17100,    0.00,    0.00,    0.00,  0.00000,  0.00000,  0.00000,  0.00000,1,1,   0.00,   1,1.0000
    16,    17,'1 ', 7.00000E-4, 8.90000E-3,   0.13420,    0.00,    0.00,    0.00,  0.00000,  0.00000,  0.00000,  0.00000,1,1,   0.00,   1,1.0000
    16,    19,'1 ', 1.60000E-3, 1.95000E-2,   0.30400,    0.00,    0.00,    0.00,  0.00000,  0.00000,  0.00000,  0.00000,1,1,   0.00,   1,1.0000
    16,    21,'1 ', 8.00000E-4, 1.35000E-2,   0.25480,    0.00,    0.00,    0.00,  0.00000,  0.00000,  0.00000,  0.00000,1,1,   0.00,   1,1.0000
    16,    24,'1 ', 3.00000E-4, 5.90000E-3,   0.06800,    0.00,    0.00,    0.00,  0.00000,  0.00000,  0.00000,  0.00000,1,1,   0.00,   1,1.0000
    17,    18,'1 ', 7.00000E-4, 8.20000E-3,   0.13190,    0.00,    0.00,    0.00,  0.00000,  0.00000,  0.00000,  0.00000,1,1,   0.00,   1,1.0000
    17,    27,'1 ', 1.30000E-3, 1.73000E-2,   0.32160,    0.00,    0.00,    0.00,  0.00000,  0.00000,  0.00000,  0.00000,1,1,   0.00,   1,1.0000
    21,    22,'1 ', 8.00000E-4, 1.40000E-2,   0.25650,    0.00,    0.00,    0.00,  0.00000,  0.00000,  0.00000,  0.00000,1,1,   0.00,   1,1.0000
    22,    23,'1 ', 6.00000E-4, 9.60000E-3,   0.18460,    0.00,    0.00,    0.00,  0.00000,  0.00000,  0.00000,  0.00000,1,1,   0.00,   1,1.0000
    23,    24,'1 ', 2.20000E-3, 3.50000E-2,   0.36100,    0.00,    0.00,    0.00,  0.00000,  0.00000,  0.00000,  0.00000,1,1,   0.00,   1,1.0000
    25,    26,'1 ', 3.20000E-3, 3.23000E-2,   0.51300,    0.00,    0.00,    0.00,  0.00000,  0.00000,  0.00000,  0.00000,1,1,   0.00,   1,1.0000
    26,    27,'1 ', 1.40000E-3, 1.47000E-2,   0.23960,    0.00,    0.00,    0.00,  0.00000,  0.00000,  0.00000,  0.00000,1,1,   0.00,   1,1.0000
    26,    28,'1 ', 4.30000E-3, 4.74000E-2,   0.78020,    0.00,    0.00,    0.00,  0.00000,  0.00000,  0.00000,  0.00000,1,1,   0.00,   1,1.0000
    26,    29,'1 ', 5.70000E-3, 6.25000E-2,   1.02900,    0.00,    0.00,    0.00,  0.00000,  0.00000,  0.00000,  0.00000,1,1,   0.00,   1,1.0000
    28,    29,'1 ', 1.40000E-3, 1.51000E-2,   0.24900,    0.00,    0.00,    0.00,  0.00000,  0.00000,  0.00000,  0.00000,1,1,   0.00,   1,1.0000
0 / END OF BRANCH DATA, BEGIN TRANSFORMER DATA
     2,    30,     0,'1 ',1,1,1, 0.00000E+0, 0.00000E+0,2,'            ',1,   1,1.0000
 0.00000E+0, 1.81000E-2,   100.00
1.02500,   0.000,   0.000,     0.00,     0.00,     0.00, 0,      0, 1.10000, 0.90000, 1.10000, 0.90000,  33, 0, 0.00000, 0.00000
1.00000,   0.000
     6,    31,     0,'1 ',1,1,1, 0.00000E+0, 0.00000E+0,2,'            ',1,   1,1.0000
 0.00000E+0, 2.50000E-2,   100.00
1.07000,   0.000,   0.000,     0.00,     0.00,     0.00, 0,      0, 1.10000, 0.90000, 1.10000, 0.90000,  33, 0, 0.00000, 0.00000
1.00000,   0.000
    10,    32,     0,'1 ',1,1,1, 0.00000E+0, 0.00000E+0,2,'            ',1,   1,1.0000
 0.00000E+0, 2.00000E-2,   100.00
1.07000,   0.000,   0.000,     0.00,     0.00,     0.00, 0,      0, 1.10000, 0.90000, 1.10000, 0.90000,  33, 0, 0.00000, 0.00000
1.00000,   0.000
    12,    11,     0,'1 ',1,1,1, 0.00000E+0, 0.00000E+0,2,'            ',1,   1,1.0000
 1.60000E-3, 4.35000E-2,   100.00
1.00600,   0.000,   0.000,     0.00,     0.00,     0.00, 0,      0, 1.10000, 0.90000, 1.10000, 0.90000,  33, 0, 0.00000, 0.00000
1.00000,   0.000
    12,    13,     0,'1 ',1,1,1, 0.00000E+0, 0.00000E+0,2,'            ',1,   1,1.0000
 1.60000E-3, 4.35000E-2,   100.00
1.00600,   0.000,   0.000,     0.00,     0.00,     0.00, 0,      0, 1.10000, 0.90000, 1.10000, 0.90000,  33, 0, 0.00000, 0.00000
1.00000,   0.000
    19,    20,     0,'1 ',1,1,1, 0.00000E+0, 0.00000E+0,2,'            ',1,   1,1.0000
 7.00000E-4, 1.38000E-2,   100.00
1.06000,   0.000,   0.000,     0.00,     0.00,     0.00, 0,      0, 1.10000, 0.90000, 1.10000, 0.90000,  33, 0, 0.00000, 0.00000
1.00000,   0.000
    19,    33,     0,'1 ',1,1,1, 0.00000E+0, 0.00000E+0,2,'            ',1,   1,1.0000
 7.00000E-4, 1.42000E-2,   100.00
1.07000,   0.000,   0.000,     0.00,     0.00,     0.00, 0,      0, 1.10000, 0.90000, 1.10000, 0.90000,  33, 0, 0.00000, 0.00000
1.00000,   0.000
    20,    34,     0,'1 ',1,1,1, 0.00000E+0, 0.00000E+0,2,'            ',1,   1,1.0000
 9.00000E-4, 1.80000E-2,   100.00
1.00900,   0.000,   0.000,     0.00,     0.00,     0.00, 0,      0, 1.10000, 0.90000, 1.10000, 0.90000,  33, 0, 0.00000, 0.00000
1.00000,   0.000
    22,    35,     0,'1 ',1,1,1, 0.00000E+0, 0.00000E+0,2,'            ',1,   1,1.0000
 0.00000E+0, 1.43000E-2,   100.00
1.02500,   0.000,   0.000,     0.00,     0.00,     0.00, 0,      0, 1.10000, 0.90000, 1.10000, 0.90000,  33, 0, 0.00000, 0.00000
1.00000,   0.000
    23,    36,     0,'1 ',1,1,1, 0.00000E+0, 0.00000E+0,2,'            ',1,   1,1.0000
 5.00000E-4, 2.72000E-2,   100.00
1.00000,   0.000,   0.000,     0.00,     0.00,     0.00, 0,      0, 1.10000, 0.90000, 1.10000, 0.90000,  33, 0, 0.00000, 0.00000
1.00000,   0.000
    25,    37,     0,'1 ',1,1,1, 0.00000E+0, 0.00000E+0,2,'            ',1,   1,1.0000
 6.00000E-4, 2.32000E-2,   100.00
1.02500,   0.000,   0.000,     0.00,     0.00,     0.00, 0,      0, 1.10000, 0.90000, 1.10000, 0.90000,  33, 0, 0.00000, 0.00000
1.00000,   0.000
    29,    38,     0,'1 ',1,1,1, 0.00000E+0, 0.00000E+0,2,'            ',1,   1,1.0000
 8.00000E-4, 1.56000E-2,   100.00
1.02500,   0.000,   0.000,     0.00,     0.00,     0.00, 0,      0, 1.10000, 0.90000, 1.10000, 0.90000,  33, 0, 0.00000, 0.00000
1.00000,   0.000
0 / END OF TRANSFORMER DATA, BEGIN AREA DATA
   1,     0,     0.000,    10.000,'1           '
0 / END OF AREA DATA, BEGIN TWO-TERMINAL DC DATA
0 / END OF TWO-TERMINAL DC DATA, BEGIN VSC DC LINE DATA
"Vsc-Project1  ",  4, 4, 5, 1,  200
3,   1, "Pac_control",  2,  "Qac_control",  -43.00,    0.0000,   0.00000,   0.00000,   50.000,  50.0000,  0.022,  0.0052,   200.00,    200.00,  100.00,  200.00,  220.00,  200.00,  1.100,  0.0010,  0.050,  0.500,  5.000,  0.000,  0.0010,  -43.00,    50.00,  550.00,  -550.00,  150.00,  -150.00,  220.00,  180.00,  0, 100.00
4,   1, "Pac_control",  3,  "Vac_control",  -343.00,   0.0000,   0.00000,   0.00000,   1.0100,  100.000,  0.025,  0.0055,   200.00,    200.00,  100.00,  200.00,  220.00,  200.00,  1.100,  0.0010,  0.050,  0.500,  5.000,  0.000,  0.0010,  -343.00,  -80.00,  550.00,  -550.00,  150.00,  -150.00,  220.00,  180.00,  0, 100.00
14,  1, "Pac_control",  0,  "Qac_control",   250.00,   0.0000,   0.00000,   0.00000,   -80.00,  60.0000,  0.020,  0.0050,   200.00,    200.00,  100.00,  200.00,  220.00,  200.00,  1.100,  0.0010,  0.050,  0.500,  5.000,  0.000,  0.0010,  250.00,   -48.00,  550.00,  -550.00,  150.00,  -150.00,  220.00,  180.00,  0, 100.00
18,  1, "Vdc_control",  1,  "Qac_control",   200.00,   0.0000,   0.00000,   0.00000,   -23.00,  50.0000,  0.022,  0.0052,   200.00,    200.00,  100.00,  200.00,  220.00,  200.00,  1.100,  0.0010,  0.050,  0.500,  5.000,  0.000,  0.0010,  135.00,   -23.00,  550.00,  -550.00,  150.00,  -150.00,  220.00,  180.00,  0, 100.00
 1,    3,   200,   4,   4,'DC1         ',   0.0000,   4,   0,   0,
 2,    4,   198,   2,   2,'DC2         ',   0.0000,   2,   0,   0,
 3,   14,   199,   4,   4,'DC3         ',   0.0000,   4,   0,   0,
 4,   18,   201,   2,   2,'DC4         ',   0.0000,   2,   0,   0,
 1, 2,'1',1,   4.0000,     0.00
 1, 3,'1',1,   2.0000,     0.00
 1, 4,'1',1,   6.0000,     0.00
 2, 3,'1',1,   6.0000,     0.00
 3, 4,'1',1,   4.0000,     0.00
0 / END OF VSC DC LINE DATA, BEGIN IMPEDANCE CORRECTION DATA
0 / END OF IMPEDANCE CORRECTION DATA, BEGIN MULTI-TERMINAL DC DATA
0 / END OF MULTI-TERMINAL DC DATA, BEGIN MULTI-SECTION LINE DATA
0 / END OF MULTI-SECTION LINE DATA, BEGIN ZONE DATA
0 / END OF ZONE DATA, BEGIN INTER-AREA TRANSFER DATA
0 / END OF INTER-AREA TRANSFER DATA, BEGIN OWNER DATA
0 / END OF OWNER DATA, BEGIN FACTS DEVICE DATA
0 / END OF FACTS DEVICE DATA, BEGIN SWITCHED SHUNT DATA
0 / END OF SWITCHED SHUNT DATA, BEGIN GNE DEVICE DATA
0 / END OF GNE DATA, BEGIN INDUCTION MACHINE DATA
0 / END OF INDUCTION MACHINE DATA
Q
